*Heading
** Job name: ori_umat Model name: Quarter_Oring_02-Copy
** Generated by: Abaqus/CAE 2020
*Preprint, echo=NO, model=NO, history=NO, contact=NO
**
** PARTS
**
*Part, name=Part-2
*End Part
**  
*Part, name=Quarter_Oring
*Node
      1,           0.,           1.,           2.
      2,           0.,  0.800000012,           2.
      3,           0.,  0.600000024,           2.
      4,           0.,  0.400000006,           2.
      5,           0.,  0.200000003,           2.
      6,           0.,           0.,           2.
      7,   0.26105237,           1.,   1.98288977
      8,   0.26105237,  0.800000012,   1.98288977
      9,   0.26105237,  0.600000024,   1.98288977
     10,   0.26105237,  0.400000006,   1.98288977
     11,   0.26105237,  0.200000003,   1.98288977
     12,   0.26105237,           0.,   1.98288977
     13,  0.517638087,           1.,   1.93185163
     14,  0.517638087,  0.800000012,   1.93185163
     15,  0.517638087,  0.600000024,   1.93185163
     16,  0.517638087,  0.400000006,   1.93185163
     17,  0.517638087,  0.200000003,   1.93185163
     18,  0.517638087,           0.,   1.93185163
     19,  0.765366852,           1.,   1.84775901
     20,  0.765366852,  0.800000012,   1.84775901
** ... 448 like lines cut
*Element, type=C3D8
  1,  79,  80,  86,  85,   1,   2,   8,   7
  2,  80,  81,  87,  86,   2,   3,   9,   8
  3,  81,  82,  88,  87,   3,   4,  10,   9
  4,  82,  83,  89,  88,   4,   5,  11,  10
  5,  83,  84,  90,  89,   5,   6,  12,  11
  6,  85,  86,  92,  91,   7,   8,  14,  13
  7,  86,  87,  93,  92,   8,   9,  15,  14
  8,  87,  88,  94,  93,   9,  10,  16,  15
  9,  88,  89,  95,  94,  10,  11,  17,  16
 10,  89,  90,  96,  95,  11,  12,  18,  17
 11,  91,  92,  98,  97,  13,  14,  20,  19
 12,  92,  93,  99,  98,  14,  15,  21,  20
 13,  93,  94, 100,  99,  15,  16,  22,  21
 14,  94,  95, 101, 100,  16,  17,  23,  22
 15,  95,  96, 102, 101,  17,  18,  24,  23
 16,  97,  98, 104, 103,  19,  20,  26,  25
 17,  98,  99, 105, 104,  20,  21,  27,  26
 18,  99, 100, 106, 105,  21,  22,  28,  27
 19, 100, 101, 107, 106,  22,  23,  29,  28
 20, 101, 102, 108, 107,  23,  24,  30,  29
** ... 280 like lines cut
*Nset, nset=Set-1, generate
   1,  468,    1
*Elset, elset=Set-1, generate
   1,  300,    1
** Section: elastic
*Solid Section, elset=Set-1, material=umat
,
*End Part
**  
**
** ASSEMBLY
**
*Assembly, name=Assembly
**  
*Instance, name=Quarter_Oring-1, part=Quarter_Oring
          0.,           0.,          0.5
          0.,           0.,          0.5, -1.00000001268805,           0.,          0.5, 89.9999992730282
*End Instance
**  
*Instance, name=Part-2-1, part=Part-2
          1.,           2.,        -0.75
          1.,           2.,        -0.75,           1., 0.999999987311948,        -0.75, 89.9999992730282
*Node
      1,          1.5,           0.,           1.
*Nset, nset=Part-2-1-RefPt_, internal
1, 
*Surface, type=CYLINDER, name=m_Surf-3
START,          1.5,           0.
 LINE,           0.,           0.
*Rigid Body, ref node=Part-2-1-RefPt_, analytical surface=m_Surf-3
*End Instance
**  
*Nset, nset=Set-1, instance=Quarter_Oring-1
   1,   2,   3,   4,   5,   6,  79,  80,  81,  82,  83,  84, 157, 158, 159, 160
 161, 162, 235, 236, 237, 238, 239, 240, 313, 314, 315, 316, 317, 318, 391, 392
 393, 394, 395, 396
*Elset, elset=Set-1, instance=Quarter_Oring-1
   1,   2,   3,   4,   5,  61,  62,  63,  64,  65, 121, 122, 123, 124, 125, 181
 182, 183, 184, 185, 241, 242, 243, 244, 245
*Nset, nset=Set-2, instance=Quarter_Oring-1
  73,  74,  75,  76,  77,  78, 151, 152, 153, 154, 155, 156, 229, 230, 231, 232
 233, 234, 307, 308, 309, 310, 311, 312, 385, 386, 387, 388, 389, 390, 463, 464
 465, 466, 467, 468
*Elset, elset=Set-2, instance=Quarter_Oring-1
  56,  57,  58,  59,  60, 116, 117, 118, 119, 120, 176, 177, 178, 179, 180, 236
 237, 238, 239, 240, 296, 297, 298, 299, 300
*Nset, nset=Set-3, instance=Quarter_Oring-1
 468,
*Nset, nset=Set-7, instance=Part-2-1
 1,
*Nset, nset=Set-8, instance=Part-2-1
 1,
*Nset, nset=s_Set-5, instance=Quarter_Oring-1, generate
  1,  78,   1
*Elset, elset=s_Set-5, instance=Quarter_Oring-1, generate
  1,  60,   1
*Elset, elset=_s_Surf-1_S2, internal, instance=Quarter_Oring-1, generate
  1,  60,   1
*Surface, type=ELEMENT, name=s_Surf-1
_s_Surf-1_S2, S2
*Surface, type=NODE, name=s_Set-5_CNS_, internal
s_Set-5, 1.
*End Assembly
** 
** MATERIALS
** 
*MATERIAL, name=umat
*DEPVAR
1932
*USER MATERIAL, constants=1
0.,
*USER OUTPUT VARIABLES
30
*Material, name=elastic
*Elastic
210000., 0.3
** 
** INTERACTION PROPERTIES
** 
*Surface Interaction, name=IntProp-1
1.,
*Friction, slip tolerance=0.005
 0.1,
** 
** BOUNDARY CONDITIONS
** 
** Name: BC-1 Type: Symmetry/Antisymmetry/Encastre
*Boundary
Set-1, XSYMM
** Name: BC-2 Type: Symmetry/Antisymmetry/Encastre
*Boundary
Set-2, YSYMM
** Name: BC-3 Type: Displacement/Rotation
*Boundary
Set-3, 2, 2
Set-3, 3, 3
Set-3, 4, 4
Set-3, 5, 5
Set-3, 6, 6
** 
** INTERACTIONS
** 
** Interaction: Int-1
*Contact Pair, interaction=IntProp-1, type=SURFACE TO SURFACE
s_Set-5_CNS_, Part-2-1.m_Surf-3
** ----------------------------------------------------------------
** 
** STEP: Step-1_Load
** 
*initial conditions, type=solution, user
*Step, name=Step-1_Load, nlgeom=NO, inc=100000
*Static
0.1, 100., 1e-05, 1.
** 
** BOUNDARY CONDITIONS
** 
** Name: BC-4 Type: Displacement/Rotation
*Boundary
Set-7, 1, 1
Set-7, 3, 3
Set-7, 4, 4
Set-7, 5, 5
Set-7, 6, 6
** Name: BC-5 Type: Velocity/Angular velocity
*Boundary, type=VELOCITY
Set-8, 2, 2, -0.0025
** 
** OUTPUT REQUESTS
** 
*Restart, write, frequency=0
** 
** FIELD OUTPUT: F-Output-1
** 
*Output, field, variable=PRESELECT
** 
** HISTORY OUTPUT: H-Output-1
** 
*Output, history, variable=PRESELECT
*End Step
** ----------------------------------------------------------------
** 
** STEP: Step-2_Unload
** 
*Step, name=Step-2_Unload, nlgeom=NO, inc=100000
*Static
0.1, 100., 1e-05, 1.
** 
** BOUNDARY CONDITIONS
** 
** Name: BC-5 Type: Velocity/Angular velocity
*Boundary, type=VELOCITY
Set-8, 2, 2, 0.0025
** 
** OUTPUT REQUESTS
** 
*Restart, write, frequency=0
** 
** FIELD OUTPUT: F-Output-1
** 
*Output, field, variable=PRESELECT
** 
** HISTORY OUTPUT: H-Output-1
** 
*Output, history, variable=PRESELECT
*End Step
